.SUBCKT OA741 1 2 6
*A linear model for the 741 op amp: (1) is noninv, (2) is inv, and
*(6) is output. RIN = 2MEG, AOL = 200,000, ROUT = 75 ohm,
*Dominant open - loop pole at 5 Hz, gain - bandwidth product
*is 1 MHz.
RIN 1 2 2MEG
E1 (3, 0) (1, 2) 2E5
R1 3 4 100K
C1 4 0 0.318UF ; R1 2 C1 = 5HZPOLE
E2 (5, 0) (4, 0) 1.0
ROUT 5 6 75
.ENDS OA741 